DU01/CodCondutor_2022124950_IJAU14_--MBS-1--T--.dss
New "Linecode.0_1_1_1" nphases=1 basefreq=60 r1=0.1500 x1=0.0890 units=km normamps=290.00
New "Linecode.0_1_1_2" nphases=2 basefreq=60 r1=0.1500 x1=0.0890 units=km normamps=290.00
New "Linecode.0_1_1_3" nphases=3 basefreq=60 r1=0.1500 x1=0.0890 units=km normamps=290.00
New "Linecode.0_1_1_4" nphases=4 basefreq=60 r1=0.1500 x1=0.0890 units=km normamps=290.00

New "Linecode.0_1_1" nphases=1 basefreq=60 r1=0.1500 x1=0.0890 units=km normamps=290.00
New "Linecode.0_1_2" nphases=2 basefreq=60 r1=0.1500 x1=0.0890 units=km normamps=290.00
New "Linecode.0_1_3" nphases=3 basefreq=60 r1=0.1500 x1=0.0890 units=km normamps=290.00
New "Linecode.0_1_4" nphases=4 basefreq=60 r1=0.1500 x1=0.0890 units=km normamps=290.00

New "Linecode.0_2_1" nphases=1 basefreq=60 r1=0.1500 x1=0.0890 units=km normamps=290.00
New "Linecode.0_2_2" nphases=2 basefreq=60 r1=0.1500 x1=0.0890 units=km normamps=290.00
New "Linecode.0_2_3" nphases=3 basefreq=60 r1=0.1500 x1=0.0890 units=km normamps=290.00
New "Linecode.0_2_4" nphases=4 basefreq=60 r1=0.1500 x1=0.0890 units=km normamps=290.00

New "Linecode.0_3_1" nphases=1 basefreq=60 r1=0.1500 x1=0.0890 units=km normamps=290.00
New "Linecode.0_3_2" nphases=2 basefreq=60 r1=0.1500 x1=0.0890 units=km normamps=290.00
New "Linecode.0_3_3" nphases=3 basefreq=60 r1=0.1500 x1=0.0890 units=km normamps=290.00
New "Linecode.0_3_4" nphases=4 basefreq=60 r1=0.1500 x1=0.0890 units=km normamps=290.00

New "Linecode.0_4_1" nphases=1 basefreq=60 r1=0.1500 x1=0.0890 units=km normamps=290.00
New "Linecode.0_4_2" nphases=2 basefreq=60 r1=0.1500 x1=0.0890 units=km normamps=290.00
New "Linecode.0_4_3" nphases=3 basefreq=60 r1=0.1500 x1=0.0890 units=km normamps=290.00
New "Linecode.0_4_4" nphases=4 basefreq=60 r1=0.1500 x1=0.0890 units=km normamps=290.00

New "Linecode.0_5_1" nphases=1 basefreq=60 r1=0.1500 x1=0.0890 units=km normamps=290.00
New "Linecode.0_5_2" nphases=2 basefreq=60 r1=0.1500 x1=0.0890 units=km normamps=290.00
New "Linecode.0_5_3" nphases=3 basefreq=60 r1=0.1500 x1=0.0890 units=km normamps=290.00
New "Linecode.0_5_4" nphases=4 basefreq=60 r1=0.1500 x1=0.0890 units=km normamps=290.00

New "Linecode.1061_1" nphases=1 basefreq=60 r1=0.1500 x1=0.0890 units=km normamps=290.00
New "Linecode.1061_2" nphases=2 basefreq=60 r1=0.1500 x1=0.0890 units=km normamps=290.00
New "Linecode.1061_3" nphases=3 basefreq=60 r1=0.1500 x1=0.0890 units=km normamps=290.00
New "Linecode.1061_4" nphases=4 basefreq=60 r1=0.1500 x1=0.0890 units=km normamps=290.00

New "Linecode.109_1" nphases=1 basefreq=60 r1=0.1500 x1=0.0890 units=km normamps=290.00
New "Linecode.109_2" nphases=2 basefreq=60 r1=0.1500 x1=0.0890 units=km normamps=290.00
New "Linecode.109_3" nphases=3 basefreq=60 r1=0.1500 x1=0.0890 units=km normamps=290.00
New "Linecode.109_4" nphases=4 basefreq=60 r1=0.1500 x1=0.0890 units=km normamps=290.00

New "Linecode.110_1" nphases=1 basefreq=60 r1=0.1500 x1=0.0890 units=km normamps=290.00
New "Linecode.110_2" nphases=2 basefreq=60 r1=0.1500 x1=0.0890 units=km normamps=290.00
New "Linecode.110_3" nphases=3 basefreq=60 r1=0.1500 x1=0.0890 units=km normamps=290.00
New "Linecode.110_4" nphases=4 basefreq=60 r1=0.1500 x1=0.0890 units=km normamps=290.00

New "Linecode.112_1" nphases=1 basefreq=60 r1=0.1500 x1=0.0890 units=km normamps=290.00
New "Linecode.112_2" nphases=2 basefreq=60 r1=0.1500 x1=0.0890 units=km normamps=290.00
New "Linecode.112_3" nphases=3 basefreq=60 r1=0.1500 x1=0.0890 units=km normamps=290.00
New "Linecode.112_4" nphases=4 basefreq=60 r1=0.1500 x1=0.0890 units=km normamps=290.00

New "Linecode.1129_1" nphases=1 basefreq=60 r1=0.1500 x1=0.0890 units=km normamps=290.00
New "Linecode.1129_2" nphases=2 basefreq=60 r1=0.1500 x1=0.0890 units=km normamps=290.00
New "Linecode.1129_3" nphases=3 basefreq=60 r1=0.1500 x1=0.0890 units=km normamps=290.00
New "Linecode.1129_4" nphases=4 basefreq=60 r1=0.1500 x1=0.0890 units=km normamps=290.00

New "Linecode.118_1" nphases=1 basefreq=60 r1=0.1500 x1=0.0890 units=km normamps=290.00
New "Linecode.118_2" nphases=2 basefreq=60 r1=0.1500 x1=0.0890 units=km normamps=290.00
New "Linecode.118_3" nphases=3 basefreq=60 r1=0.1500 x1=0.0890 units=km normamps=290.00
New "Linecode.118_4" nphases=4 basefreq=60 r1=0.1500 x1=0.0890 units=km normamps=290.00

New "Linecode.121_1" nphases=1 basefreq=60 r1=0.1500 x1=0.0890 units=km normamps=290.00
New "Linecode.121_2" nphases=2 basefreq=60 r1=0.1500 x1=0.0890 units=km normamps=290.00
New "Linecode.121_3" nphases=3 basefreq=60 r1=0.1500 x1=0.0890 units=km normamps=290.00
New "Linecode.121_4" nphases=4 basefreq=60 r1=0.1500 x1=0.0890 units=km normamps=290.00

New "Linecode.122_1" nphases=1 basefreq=60 r1=0.1500 x1=0.0890 units=km normamps=290.00
New "Linecode.122_2" nphases=2 basefreq=60 r1=0.1500 x1=0.0890 units=km normamps=290.00
New "Linecode.122_3" nphases=3 basefreq=60 r1=0.1500 x1=0.0890 units=km normamps=290.00
New "Linecode.122_4" nphases=4 basefreq=60 r1=0.1500 x1=0.0890 units=km normamps=290.00

New "Linecode.123_1" nphases=1 basefreq=60 r1=0.1500 x1=0.0890 units=km normamps=290.00
New "Linecode.123_2" nphases=2 basefreq=60 r1=0.1500 x1=0.0890 units=km normamps=290.00
New "Linecode.123_3" nphases=3 basefreq=60 r1=0.1500 x1=0.0890 units=km normamps=290.00
New "Linecode.123_4" nphases=4 basefreq=60 r1=0.1500 x1=0.0890 units=km normamps=290.00

New "Linecode.124_1" nphases=1 basefreq=60 r1=0.1500 x1=0.0890 units=km normamps=290.00
New "Linecode.124_2" nphases=2 basefreq=60 r1=0.1500 x1=0.0890 units=km normamps=290.00
New "Linecode.124_3" nphases=3 basefreq=60 r1=0.1500 x1=0.0890 units=km normamps=290.00
New "Linecode.124_4" nphases=4 basefreq=60 r1=0.1500 x1=0.0890 units=km normamps=290.00

New "Linecode.128_1" nphases=1 basefreq=60 r1=0.1500 x1=0.0890 units=km normamps=290.00
New "Linecode.128_2" nphases=2 basefreq=60 r1=0.1500 x1=0.0890 units=km normamps=290.00
New "Linecode.128_3" nphases=3 basefreq=60 r1=0.1500 x1=0.0890 units=km normamps=290.00
New "Linecode.128_4" nphases=4 basefreq=60 r1=0.1500 x1=0.0890 units=km normamps=290.00

New "Linecode.1283_1" nphases=1 basefreq=60 r1=0.1500 x1=0.0890 units=km normamps=290.00
New "Linecode.1283_2" nphases=2 basefreq=60 r1=0.1500 x1=0.0890 units=km normamps=290.00
New "Linecode.1283_3" nphases=3 basefreq=60 r1=0.1500 x1=0.0890 units=km normamps=290.00
New "Linecode.1283_4" nphases=4 basefreq=60 r1=0.1500 x1=0.0890 units=km normamps=290.00

New "Linecode.131_1" nphases=1 basefreq=60 r1=0.1500 x1=0.0890 units=km normamps=290.00
New "Linecode.131_2" nphases=2 basefreq=60 r1=0.1500 x1=0.0890 units=km normamps=290.00
New "Linecode.131_3" nphases=3 basefreq=60 r1=0.1500 x1=0.0890 units=km normamps=290.00
New "Linecode.131_4" nphases=4 basefreq=60 r1=0.1500 x1=0.0890 units=km normamps=290.00

New "Linecode.133_1" nphases=1 basefreq=60 r1=0.1500 x1=0.0890 units=km normamps=290.00
New "Linecode.133_2" nphases=2 basefreq=60 r1=0.1500 x1=0.0890 units=km normamps=290.00
New "Linecode.133_3" nphases=3 basefreq=60 r1=0.1500 x1=0.0890 units=km normamps=290.00
New "Linecode.133_4" nphases=4 basefreq=60 r1=0.1500 x1=0.0890 units=km normamps=290.00

New "Linecode.152_1" nphases=1 basefreq=60 r1=0.1500 x1=0.0890 units=km normamps=290.00
New "Linecode.152_2" nphases=2 basefreq=60 r1=0.1500 x1=0.0890 units=km normamps=290.00
New "Linecode.152_3" nphases=3 basefreq=60 r1=0.1500 x1=0.0890 units=km normamps=290.00
New "Linecode.152_4" nphases=4 basefreq=60 r1=0.1500 x1=0.0890 units=km normamps=290.00

New "Linecode.153_1" nphases=1 basefreq=60 r1=0.1500 x1=0.0890 units=km normamps=290.00
New "Linecode.153_2" nphases=2 basefreq=60 r1=0.1500 x1=0.0890 units=km normamps=290.00
New "Linecode.153_3" nphases=3 basefreq=60 r1=0.1500 x1=0.0890 units=km normamps=290.00
New "Linecode.153_4" nphases=4 basefreq=60 r1=0.1500 x1=0.0890 units=km normamps=290.00

New "Linecode.1571_1" nphases=1 basefreq=60 r1=0.1500 x1=0.0890 units=km normamps=290.00
New "Linecode.1571_2" nphases=2 basefreq=60 r1=0.1500 x1=0.0890 units=km normamps=290.00
New "Linecode.1571_3" nphases=3 basefreq=60 r1=0.1500 x1=0.0890 units=km normamps=290.00
New "Linecode.1571_4" nphases=4 basefreq=60 r1=0.1500 x1=0.0890 units=km normamps=290.00

New "Linecode.1670_1" nphases=1 basefreq=60 r1=0.1500 x1=0.0890 units=km normamps=290.00
New "Linecode.1670_2" nphases=2 basefreq=60 r1=0.1500 x1=0.0890 units=km normamps=290.00
New "Linecode.1670_3" nphases=3 basefreq=60 r1=0.1500 x1=0.0890 units=km normamps=290.00
New "Linecode.1670_4" nphases=4 basefreq=60 r1=0.1500 x1=0.0890 units=km normamps=290.00

New "Linecode.168_1" nphases=1 basefreq=60 r1=0.1500 x1=0.0890 units=km normamps=290.00
New "Linecode.168_2" nphases=2 basefreq=60 r1=0.1500 x1=0.0890 units=km normamps=290.00
New "Linecode.168_3" nphases=3 basefreq=60 r1=0.1500 x1=0.0890 units=km normamps=290.00
New "Linecode.168_4" nphases=4 basefreq=60 r1=0.1500 x1=0.0890 units=km normamps=290.00

New "Linecode.174_1" nphases=1 basefreq=60 r1=0.1500 x1=0.0890 units=km normamps=290.00
New "Linecode.174_2" nphases=2 basefreq=60 r1=0.1500 x1=0.0890 units=km normamps=290.00
New "Linecode.174_3" nphases=3 basefreq=60 r1=0.1500 x1=0.0890 units=km normamps=290.00
New "Linecode.174_4" nphases=4 basefreq=60 r1=0.1500 x1=0.0890 units=km normamps=290.00

New "Linecode.190_1" nphases=1 basefreq=60 r1=0.1500 x1=0.0890 units=km normamps=290.00
New "Linecode.190_2" nphases=2 basefreq=60 r1=0.1500 x1=0.0890 units=km normamps=290.00
New "Linecode.190_3" nphases=3 basefreq=60 r1=0.1500 x1=0.0890 units=km normamps=290.00
New "Linecode.190_4" nphases=4 basefreq=60 r1=0.1500 x1=0.0890 units=km normamps=290.00

New "Linecode.233_1" nphases=1 basefreq=60 r1=0.1500 x1=0.0890 units=km normamps=290.00
New "Linecode.233_2" nphases=2 basefreq=60 r1=0.1500 x1=0.0890 units=km normamps=290.00
New "Linecode.233_3" nphases=3 basefreq=60 r1=0.1500 x1=0.0890 units=km normamps=290.00
New "Linecode.233_4" nphases=4 basefreq=60 r1=0.1500 x1=0.0890 units=km normamps=290.00

New "Linecode.235_1" nphases=1 basefreq=60 r1=0.1500 x1=0.0890 units=km normamps=290.00
New "Linecode.235_2" nphases=2 basefreq=60 r1=0.1500 x1=0.0890 units=km normamps=290.00
New "Linecode.235_3" nphases=3 basefreq=60 r1=0.1500 x1=0.0890 units=km normamps=290.00
New "Linecode.235_4" nphases=4 basefreq=60 r1=0.1500 x1=0.0890 units=km normamps=290.00

New "Linecode.25_1" nphases=1 basefreq=60 r1=0.1500 x1=0.0890 units=km normamps=290.00
New "Linecode.25_2" nphases=2 basefreq=60 r1=0.1500 x1=0.0890 units=km normamps=290.00
New "Linecode.25_3" nphases=3 basefreq=60 r1=0.1500 x1=0.0890 units=km normamps=290.00
New "Linecode.25_4" nphases=4 basefreq=60 r1=0.1500 x1=0.0890 units=km normamps=290.00

New "Linecode.394_1" nphases=1 basefreq=60 r1=0.1500 x1=0.0890 units=km normamps=290.00
New "Linecode.394_2" nphases=2 basefreq=60 r1=0.1500 x1=0.0890 units=km normamps=290.00
New "Linecode.394_3" nphases=3 basefreq=60 r1=0.1500 x1=0.0890 units=km normamps=290.00
New "Linecode.394_4" nphases=4 basefreq=60 r1=0.1500 x1=0.0890 units=km normamps=290.00

New "Linecode.429_1" nphases=1 basefreq=60 r1=0.1500 x1=0.0890 units=km normamps=290.00
New "Linecode.429_2" nphases=2 basefreq=60 r1=0.1500 x1=0.0890 units=km normamps=290.00
New "Linecode.429_3" nphases=3 basefreq=60 r1=0.1500 x1=0.0890 units=km normamps=290.00
New "Linecode.429_4" nphases=4 basefreq=60 r1=0.1500 x1=0.0890 units=km normamps=290.00

New "Linecode.776_1" nphases=1 basefreq=60 r1=0.1500 x1=0.0890 units=km normamps=290.00
New "Linecode.776_2" nphases=2 basefreq=60 r1=0.1500 x1=0.0890 units=km normamps=290.00
New "Linecode.776_3" nphases=3 basefreq=60 r1=0.1500 x1=0.0890 units=km normamps=290.00
New "Linecode.776_4" nphases=4 basefreq=60 r1=0.1500 x1=0.0890 units=km normamps=290.00

New "Linecode.784_1" nphases=1 basefreq=60 r1=0.1500 x1=0.0890 units=km normamps=290.00
New "Linecode.784_2" nphases=2 basefreq=60 r1=0.1500 x1=0.0890 units=km normamps=290.00
New "Linecode.784_3" nphases=3 basefreq=60 r1=0.1500 x1=0.0890 units=km normamps=290.00
New "Linecode.784_4" nphases=4 basefreq=60 r1=0.1500 x1=0.0890 units=km normamps=290.00

New "Linecode.847_1" nphases=1 basefreq=60 r1=0.1500 x1=0.0890 units=km normamps=290.00
New "Linecode.847_2" nphases=2 basefreq=60 r1=0.1500 x1=0.0890 units=km normamps=290.00
New "Linecode.847_3" nphases=3 basefreq=60 r1=0.1500 x1=0.0890 units=km normamps=290.00
New "Linecode.847_4" nphases=4 basefreq=60 r1=0.1500 x1=0.0890 units=km normamps=290.00

New "Linecode.BT_BT001_7_0_1_1" nphases=1 basefreq=60 r1=3.9216 x1=0.4211 units=km normamps=42.90
New "Linecode.BT_BT001_7_0_1_2" nphases=2 basefreq=60 r1=3.9216 x1=0.4211 units=km normamps=42.90
New "Linecode.BT_BT001_7_0_1_3" nphases=3 basefreq=60 r1=3.9216 x1=0.4211 units=km normamps=42.90
New "Linecode.BT_BT001_7_0_1_4" nphases=4 basefreq=60 r1=3.9216 x1=0.4211 units=km normamps=42.90

New "Linecode.BT_BT002_7_0_1_1" nphases=1 basefreq=60 r1=2.5303 x1=0.3983 units=km normamps=91.00
New "Linecode.BT_BT002_7_0_1_2" nphases=2 basefreq=60 r1=2.5303 x1=0.3983 units=km normamps=91.00
New "Linecode.BT_BT002_7_0_1_3" nphases=3 basefreq=60 r1=2.5303 x1=0.3983 units=km normamps=91.00
New "Linecode.BT_BT002_7_0_1_4" nphases=4 basefreq=60 r1=2.5303 x1=0.3983 units=km normamps=91.00

New "Linecode.BT_BT003_5_0_1_1" nphases=1 basefreq=60 r1=1.5896 x1=0.3750 units=km normamps=98.80
New "Linecode.BT_BT003_5_0_1_2" nphases=2 basefreq=60 r1=1.5896 x1=0.3750 units=km normamps=98.80
New "Linecode.BT_BT003_5_0_1_3" nphases=3 basefreq=60 r1=1.5896 x1=0.3750 units=km normamps=98.80
New "Linecode.BT_BT003_5_0_1_4" nphases=4 basefreq=60 r1=1.5896 x1=0.3750 units=km normamps=98.80

New "Linecode.BT_BT003_7_0_1_1" nphases=1 basefreq=60 r1=1.5896 x1=0.3750 units=km normamps=98.80
New "Linecode.BT_BT003_7_0_1_2" nphases=2 basefreq=60 r1=1.5896 x1=0.3750 units=km normamps=98.80
New "Linecode.BT_BT003_7_0_1_3" nphases=3 basefreq=60 r1=1.5896 x1=0.3750 units=km normamps=98.80
New "Linecode.BT_BT003_7_0_1_4" nphases=4 basefreq=60 r1=1.5896 x1=0.3750 units=km normamps=98.80

New "Linecode.BT_BT004_5_0_1_1" nphases=1 basefreq=60 r1=1.2278 x1=0.3791 units=km normamps=120.90
New "Linecode.BT_BT004_5_0_1_2" nphases=2 basefreq=60 r1=1.2278 x1=0.3791 units=km normamps=120.90
New "Linecode.BT_BT004_5_0_1_3" nphases=3 basefreq=60 r1=1.2278 x1=0.3791 units=km normamps=120.90
New "Linecode.BT_BT004_5_0_1_4" nphases=4 basefreq=60 r1=1.2278 x1=0.3791 units=km normamps=120.90

New "Linecode.BT_BT004_7_0_1_1" nphases=1 basefreq=60 r1=1.2278 x1=0.3791 units=km normamps=120.90
New "Linecode.BT_BT004_7_0_1_2" nphases=2 basefreq=60 r1=1.2278 x1=0.3791 units=km normamps=120.90
New "Linecode.BT_BT004_7_0_1_3" nphases=3 basefreq=60 r1=1.2278 x1=0.3791 units=km normamps=120.90
New "Linecode.BT_BT004_7_0_1_4" nphases=4 basefreq=60 r1=1.2278 x1=0.3791 units=km normamps=120.90

New "Linecode.BT_BT005_7_0_1_1" nphases=1 basefreq=60 r1=0.7726 x1=0.3546 units=km normamps=131.30
New "Linecode.BT_BT005_7_0_1_2" nphases=2 basefreq=60 r1=0.7726 x1=0.3546 units=km normamps=131.30
New "Linecode.BT_BT005_7_0_1_3" nphases=3 basefreq=60 r1=0.7726 x1=0.3546 units=km normamps=131.30
New "Linecode.BT_BT005_7_0_1_4" nphases=4 basefreq=60 r1=0.7726 x1=0.3546 units=km normamps=131.30

New "Linecode.BT_BT006_5_0_1_1" nphases=1 basefreq=60 r1=1.0019 x1=0.3634 units=km normamps=176.80
New "Linecode.BT_BT006_5_0_1_2" nphases=2 basefreq=60 r1=1.0019 x1=0.3634 units=km normamps=176.80
New "Linecode.BT_BT006_5_0_1_3" nphases=3 basefreq=60 r1=1.0019 x1=0.3634 units=km normamps=176.80
New "Linecode.BT_BT006_5_0_1_4" nphases=4 basefreq=60 r1=1.0019 x1=0.3634 units=km normamps=176.80

New "Linecode.BT_BT006_7_0_1_1" nphases=1 basefreq=60 r1=1.0019 x1=0.3634 units=km normamps=176.80
New "Linecode.BT_BT006_7_0_1_2" nphases=2 basefreq=60 r1=1.0019 x1=0.3634 units=km normamps=176.80
New "Linecode.BT_BT006_7_0_1_3" nphases=3 basefreq=60 r1=1.0019 x1=0.3634 units=km normamps=176.80
New "Linecode.BT_BT006_7_0_1_4" nphases=4 basefreq=60 r1=1.0019 x1=0.3634 units=km normamps=176.80

New "Linecode.BT_BT007_5_0_1_1" nphases=1 basefreq=60 r1=0.6350 x1=0.3459 units=km normamps=252.20
New "Linecode.BT_BT007_5_0_1_2" nphases=2 basefreq=60 r1=0.6350 x1=0.3459 units=km normamps=252.20
New "Linecode.BT_BT007_5_0_1_3" nphases=3 basefreq=60 r1=0.6350 x1=0.3459 units=km normamps=252.20
New "Linecode.BT_BT007_5_0_1_4" nphases=4 basefreq=60 r1=0.6350 x1=0.3459 units=km normamps=252.20

New "Linecode.BT_BT007_7_0_1_1" nphases=1 basefreq=60 r1=0.6350 x1=0.3459 units=km normamps=252.20
New "Linecode.BT_BT007_7_0_1_2" nphases=2 basefreq=60 r1=0.6350 x1=0.3459 units=km normamps=252.20
New "Linecode.BT_BT007_7_0_1_3" nphases=3 basefreq=60 r1=0.6350 x1=0.3459 units=km normamps=252.20
New "Linecode.BT_BT007_7_0_1_4" nphases=4 basefreq=60 r1=0.6350 x1=0.3459 units=km normamps=252.20

New "Linecode.BT_BT008_5_0_1_1" nphases=1 basefreq=60 r1=0.4047 x1=0.3243 units=km normamps=327.60
New "Linecode.BT_BT008_5_0_1_2" nphases=2 basefreq=60 r1=0.4047 x1=0.3243 units=km normamps=327.60
New "Linecode.BT_BT008_5_0_1_3" nphases=3 basefreq=60 r1=0.4047 x1=0.3243 units=km normamps=327.60
New "Linecode.BT_BT008_5_0_1_4" nphases=4 basefreq=60 r1=0.4047 x1=0.3243 units=km normamps=327.60

New "Linecode.BT_BT008_7_0_1_1" nphases=1 basefreq=60 r1=0.4047 x1=0.3243 units=km normamps=327.60
New "Linecode.BT_BT008_7_0_1_2" nphases=2 basefreq=60 r1=0.4047 x1=0.3243 units=km normamps=327.60
New "Linecode.BT_BT008_7_0_1_3" nphases=3 basefreq=60 r1=0.4047 x1=0.3243 units=km normamps=327.60
New "Linecode.BT_BT008_7_0_1_4" nphases=4 basefreq=60 r1=0.4047 x1=0.3243 units=km normamps=327.60

New "Linecode.BT_BT009_5_0_1_1" nphases=1 basefreq=60 r1=0.3208 x1=0.3154 units=km normamps=380.90
New "Linecode.BT_BT009_5_0_1_2" nphases=2 basefreq=60 r1=0.3208 x1=0.3154 units=km normamps=380.90
New "Linecode.BT_BT009_5_0_1_3" nphases=3 basefreq=60 r1=0.3208 x1=0.3154 units=km normamps=380.90
New "Linecode.BT_BT009_5_0_1_4" nphases=4 basefreq=60 r1=0.3208 x1=0.3154 units=km normamps=380.90

New "Linecode.BT_BT009_7_0_1_1" nphases=1 basefreq=60 r1=0.3208 x1=0.3154 units=km normamps=380.90
New "Linecode.BT_BT009_7_0_1_2" nphases=2 basefreq=60 r1=0.3208 x1=0.3154 units=km normamps=380.90
New "Linecode.BT_BT009_7_0_1_3" nphases=3 basefreq=60 r1=0.3208 x1=0.3154 units=km normamps=380.90
New "Linecode.BT_BT009_7_0_1_4" nphases=4 basefreq=60 r1=0.3208 x1=0.3154 units=km normamps=380.90

New "Linecode.BT_BT010_5_0_1_1" nphases=1 basefreq=60 r1=0.2551 x1=0.2989 units=km normamps=439.40
New "Linecode.BT_BT010_5_0_1_2" nphases=2 basefreq=60 r1=0.2551 x1=0.2989 units=km normamps=439.40
New "Linecode.BT_BT010_5_0_1_3" nphases=3 basefreq=60 r1=0.2551 x1=0.2989 units=km normamps=439.40
New "Linecode.BT_BT010_5_0_1_4" nphases=4 basefreq=60 r1=0.2551 x1=0.2989 units=km normamps=439.40

New "Linecode.BT_BT010_7_0_1_1" nphases=1 basefreq=60 r1=0.2551 x1=0.2989 units=km normamps=439.40
New "Linecode.BT_BT010_7_0_1_2" nphases=2 basefreq=60 r1=0.2551 x1=0.2989 units=km normamps=439.40
New "Linecode.BT_BT010_7_0_1_3" nphases=3 basefreq=60 r1=0.2551 x1=0.2989 units=km normamps=439.40
New "Linecode.BT_BT010_7_0_1_4" nphases=4 basefreq=60 r1=0.2551 x1=0.2989 units=km normamps=439.40

New "Linecode.BT_BT011_5_0_1_1" nphases=1 basefreq=60 r1=0.2027 x1=0.2979 units=km normamps=512.20
New "Linecode.BT_BT011_5_0_1_2" nphases=2 basefreq=60 r1=0.2027 x1=0.2979 units=km normamps=512.20
New "Linecode.BT_BT011_5_0_1_3" nphases=3 basefreq=60 r1=0.2027 x1=0.2979 units=km normamps=512.20
New "Linecode.BT_BT011_5_0_1_4" nphases=4 basefreq=60 r1=0.2027 x1=0.2979 units=km normamps=512.20

New "Linecode.BT_BT011_7_0_1_1" nphases=1 basefreq=60 r1=0.2027 x1=0.2979 units=km normamps=512.20
New "Linecode.BT_BT011_7_0_1_2" nphases=2 basefreq=60 r1=0.2027 x1=0.2979 units=km normamps=512.20
New "Linecode.BT_BT011_7_0_1_3" nphases=3 basefreq=60 r1=0.2027 x1=0.2979 units=km normamps=512.20
New "Linecode.BT_BT011_7_0_1_4" nphases=4 basefreq=60 r1=0.2027 x1=0.2979 units=km normamps=512.20

New "Linecode.BT_BT101_7_0_1_1" nphases=1 basefreq=60 r1=6.4025 x1=0.4042 units=km normamps=62.40
New "Linecode.BT_BT101_7_0_1_2" nphases=2 basefreq=60 r1=6.4025 x1=0.4042 units=km normamps=62.40
New "Linecode.BT_BT101_7_0_1_3" nphases=3 basefreq=60 r1=6.4025 x1=0.4042 units=km normamps=62.40
New "Linecode.BT_BT101_7_0_1_4" nphases=4 basefreq=60 r1=6.4025 x1=0.4042 units=km normamps=62.40

New "Linecode.BT_BT102_7_0_1_1" nphases=1 basefreq=60 r1=4.0409 x1=0.3983 units=km normamps=83.20
New "Linecode.BT_BT102_7_0_1_2" nphases=2 basefreq=60 r1=4.0409 x1=0.3983 units=km normamps=83.20
New "Linecode.BT_BT102_7_0_1_3" nphases=3 basefreq=60 r1=4.0409 x1=0.3983 units=km normamps=83.20
New "Linecode.BT_BT102_7_0_1_4" nphases=4 basefreq=60 r1=4.0409 x1=0.3983 units=km normamps=83.20

New "Linecode.BT_BT103_7_0_1_1" nphases=1 basefreq=60 r1=2.5676 x1=0.3581 units=km normamps=105.30
New "Linecode.BT_BT103_7_0_1_2" nphases=2 basefreq=60 r1=2.5676 x1=0.3581 units=km normamps=105.30
New "Linecode.BT_BT103_7_0_1_3" nphases=3 basefreq=60 r1=2.5676 x1=0.3581 units=km normamps=105.30
New "Linecode.BT_BT103_7_0_1_4" nphases=4 basefreq=60 r1=2.5676 x1=0.3581 units=km normamps=105.30

New "Linecode.BT_BT104_7_0_1_1" nphases=1 basefreq=60 r1=2.0084 x1=0.3791 units=km normamps=106.60
New "Linecode.BT_BT104_7_0_1_2" nphases=2 basefreq=60 r1=2.0084 x1=0.3791 units=km normamps=106.60
New "Linecode.BT_BT104_7_0_1_3" nphases=3 basefreq=60 r1=2.0084 x1=0.3791 units=km normamps=106.60
New "Linecode.BT_BT104_7_0_1_4" nphases=4 basefreq=60 r1=2.0084 x1=0.3791 units=km normamps=106.60

New "Linecode.BT_BT105_7_0_1_1" nphases=1 basefreq=60 r1=1.2637 x1=0.3377 units=km normamps=131.30
New "Linecode.BT_BT105_7_0_1_2" nphases=2 basefreq=60 r1=1.2637 x1=0.3377 units=km normamps=131.30
New "Linecode.BT_BT105_7_0_1_3" nphases=3 basefreq=60 r1=1.2637 x1=0.3377 units=km normamps=131.30
New "Linecode.BT_BT105_7_0_1_4" nphases=4 basefreq=60 r1=1.2637 x1=0.3377 units=km normamps=131.30

New "Linecode.BT_BT106_5_0_1_1" nphases=1 basefreq=60 r1=1.6118 x1=0.3634 units=km normamps=144.30
New "Linecode.BT_BT106_5_0_1_2" nphases=2 basefreq=60 r1=1.6118 x1=0.3634 units=km normamps=144.30
New "Linecode.BT_BT106_5_0_1_3" nphases=3 basefreq=60 r1=1.6118 x1=0.3634 units=km normamps=144.30
New "Linecode.BT_BT106_5_0_1_4" nphases=4 basefreq=60 r1=1.6118 x1=0.3634 units=km normamps=144.30

New "Linecode.BT_BT106_7_0_1_1" nphases=1 basefreq=60 r1=1.6118 x1=0.3634 units=km normamps=144.30
New "Linecode.BT_BT106_7_0_1_2" nphases=2 basefreq=60 r1=1.6118 x1=0.3634 units=km normamps=144.30
New "Linecode.BT_BT106_7_0_1_3" nphases=3 basefreq=60 r1=1.6118 x1=0.3634 units=km normamps=144.30
New "Linecode.BT_BT106_7_0_1_4" nphases=4 basefreq=60 r1=1.6118 x1=0.3634 units=km normamps=144.30

New "Linecode.BT_BT107_5_0_1_1" nphases=1 basefreq=60 r1=1.0145 x1=0.3290 units=km normamps=193.70
New "Linecode.BT_BT107_5_0_1_2" nphases=2 basefreq=60 r1=1.0145 x1=0.3290 units=km normamps=193.70
New "Linecode.BT_BT107_5_0_1_3" nphases=3 basefreq=60 r1=1.0145 x1=0.3290 units=km normamps=193.70
New "Linecode.BT_BT107_5_0_1_4" nphases=4 basefreq=60 r1=1.0145 x1=0.3290 units=km normamps=193.70

New "Linecode.BT_BT107_7_0_1_1" nphases=1 basefreq=60 r1=1.0145 x1=0.3290 units=km normamps=193.70
New "Linecode.BT_BT107_7_0_1_2" nphases=2 basefreq=60 r1=1.0145 x1=0.3290 units=km normamps=193.70
New "Linecode.BT_BT107_7_0_1_3" nphases=3 basefreq=60 r1=1.0145 x1=0.3290 units=km normamps=193.70
New "Linecode.BT_BT107_7_0_1_4" nphases=4 basefreq=60 r1=1.0145 x1=0.3290 units=km normamps=193.70

New "Linecode.BT_BT108_5_0_1_1" nphases=1 basefreq=60 r1=0.6375 x1=0.3243 units=km normamps=261.30
New "Linecode.BT_BT108_5_0_1_2" nphases=2 basefreq=60 r1=0.6375 x1=0.3243 units=km normamps=261.30
New "Linecode.BT_BT108_5_0_1_3" nphases=3 basefreq=60 r1=0.6375 x1=0.3243 units=km normamps=261.30
New "Linecode.BT_BT108_5_0_1_4" nphases=4 basefreq=60 r1=0.6375 x1=0.3243 units=km normamps=261.30

New "Linecode.BT_BT108_7_0_1_1" nphases=1 basefreq=60 r1=0.6375 x1=0.3243 units=km normamps=261.30
New "Linecode.BT_BT108_7_0_1_2" nphases=2 basefreq=60 r1=0.6375 x1=0.3243 units=km normamps=261.30
New "Linecode.BT_BT108_7_0_1_3" nphases=3 basefreq=60 r1=0.6375 x1=0.3243 units=km normamps=261.30
New "Linecode.BT_BT108_7_0_1_4" nphases=4 basefreq=60 r1=0.6375 x1=0.3243 units=km normamps=261.30

New "Linecode.BT_BT109_5_0_1_1" nphases=1 basefreq=60 r1=0.4494 x1=0.3154 units=km normamps=299.00
New "Linecode.BT_BT109_5_0_1_2" nphases=2 basefreq=60 r1=0.4494 x1=0.3154 units=km normamps=299.00
New "Linecode.BT_BT109_5_0_1_3" nphases=3 basefreq=60 r1=0.4494 x1=0.3154 units=km normamps=299.00
New "Linecode.BT_BT109_5_0_1_4" nphases=4 basefreq=60 r1=0.4494 x1=0.3154 units=km normamps=299.00

New "Linecode.BT_BT109_7_0_1_1" nphases=1 basefreq=60 r1=0.4494 x1=0.3154 units=km normamps=299.00
New "Linecode.BT_BT109_7_0_1_2" nphases=2 basefreq=60 r1=0.4494 x1=0.3154 units=km normamps=299.00
New "Linecode.BT_BT109_7_0_1_3" nphases=3 basefreq=60 r1=0.4494 x1=0.3154 units=km normamps=299.00
New "Linecode.BT_BT109_7_0_1_4" nphases=4 basefreq=60 r1=0.4494 x1=0.3154 units=km normamps=299.00

New "Linecode.BT_BT110_7_0_1_1" nphases=1 basefreq=60 r1=0.4010 x1=0.2989 units=km normamps=351.00
New "Linecode.BT_BT110_7_0_1_2" nphases=2 basefreq=60 r1=0.4010 x1=0.2989 units=km normamps=351.00
New "Linecode.BT_BT110_7_0_1_3" nphases=3 basefreq=60 r1=0.4010 x1=0.2989 units=km normamps=351.00
New "Linecode.BT_BT110_7_0_1_4" nphases=4 basefreq=60 r1=0.4010 x1=0.2989 units=km normamps=351.00

New "Linecode.BT_BT111_5_0_1_1" nphases=1 basefreq=60 r1=0.3184 x1=0.2979 units=km normamps=408.20
New "Linecode.BT_BT111_5_0_1_2" nphases=2 basefreq=60 r1=0.3184 x1=0.2979 units=km normamps=408.20
New "Linecode.BT_BT111_5_0_1_3" nphases=3 basefreq=60 r1=0.3184 x1=0.2979 units=km normamps=408.20
New "Linecode.BT_BT111_5_0_1_4" nphases=4 basefreq=60 r1=0.3184 x1=0.2979 units=km normamps=408.20

New "Linecode.BT_BT111_7_0_1_1" nphases=1 basefreq=60 r1=0.3184 x1=0.2979 units=km normamps=408.20
New "Linecode.BT_BT111_7_0_1_2" nphases=2 basefreq=60 r1=0.3184 x1=0.2979 units=km normamps=408.20
New "Linecode.BT_BT111_7_0_1_3" nphases=3 basefreq=60 r1=0.3184 x1=0.2979 units=km normamps=408.20
New "Linecode.BT_BT111_7_0_1_4" nphases=4 basefreq=60 r1=0.3184 x1=0.2979 units=km normamps=408.20

New "Linecode.BT_BT201_7_0_1_1" nphases=1 basefreq=60 r1=6.4147 x1=0.4042 units=km normamps=32.50
New "Linecode.BT_BT201_7_0_1_2" nphases=2 basefreq=60 r1=6.4147 x1=0.4042 units=km normamps=32.50
New "Linecode.BT_BT201_7_0_1_3" nphases=3 basefreq=60 r1=6.4147 x1=0.4042 units=km normamps=32.50
New "Linecode.BT_BT201_7_0_1_4" nphases=4 basefreq=60 r1=6.4147 x1=0.4042 units=km normamps=32.50

New "Linecode.BT_BT202_7_0_1_1" nphases=1 basefreq=60 r1=4.0262 x1=0.4035 units=km normamps=42.90
New "Linecode.BT_BT202_7_0_1_2" nphases=2 basefreq=60 r1=4.0262 x1=0.4035 units=km normamps=42.90
New "Linecode.BT_BT202_7_0_1_3" nphases=3 basefreq=60 r1=4.0262 x1=0.4035 units=km normamps=42.90
New "Linecode.BT_BT202_7_0_1_4" nphases=4 basefreq=60 r1=4.0262 x1=0.4035 units=km normamps=42.90

New "Linecode.BT_BT203_7_0_1_1" nphases=1 basefreq=60 r1=2.1152 x1=0.3622 units=km normamps=106.60
New "Linecode.BT_BT203_7_0_1_2" nphases=2 basefreq=60 r1=2.1152 x1=0.3622 units=km normamps=106.60
New "Linecode.BT_BT203_7_0_1_3" nphases=3 basefreq=60 r1=2.1152 x1=0.3622 units=km normamps=106.60
New "Linecode.BT_BT203_7_0_1_4" nphases=4 basefreq=60 r1=2.1152 x1=0.3622 units=km normamps=106.60

New "Linecode.BT_BT204_7_0_1_1" nphases=1 basefreq=60 r1=2.6474 x1=0.4027 units=km normamps=109.20
New "Linecode.BT_BT204_7_0_1_2" nphases=2 basefreq=60 r1=2.6474 x1=0.4027 units=km normamps=109.20
New "Linecode.BT_BT204_7_0_1_3" nphases=3 basefreq=60 r1=2.6474 x1=0.4027 units=km normamps=109.20
New "Linecode.BT_BT204_7_0_1_4" nphases=4 basefreq=60 r1=2.6474 x1=0.4027 units=km normamps=109.20

New "Linecode.BT_BT205_7_0_1_1" nphases=1 basefreq=60 r1=1.3769 x1=0.3961 units=km normamps=131.30
New "Linecode.BT_BT205_7_0_1_2" nphases=2 basefreq=60 r1=1.3769 x1=0.3961 units=km normamps=131.30
New "Linecode.BT_BT205_7_0_1_3" nphases=3 basefreq=60 r1=1.3769 x1=0.3961 units=km normamps=131.30
New "Linecode.BT_BT205_7_0_1_4" nphases=4 basefreq=60 r1=1.3769 x1=0.3961 units=km normamps=131.30

New "Linecode.BT_BT206_5_0_1_1" nphases=1 basefreq=60 r1=1.6397 x1=0.3465 units=km normamps=145.60
New "Linecode.BT_BT206_5_0_1_2" nphases=2 basefreq=60 r1=1.6397 x1=0.3465 units=km normamps=145.60
New "Linecode.BT_BT206_5_0_1_3" nphases=3 basefreq=60 r1=1.6397 x1=0.3465 units=km normamps=145.60
New "Linecode.BT_BT206_5_0_1_4" nphases=4 basefreq=60 r1=1.6397 x1=0.3465 units=km normamps=145.60

New "Linecode.BT_BT206_7_0_1_1" nphases=1 basefreq=60 r1=1.6397 x1=0.3465 units=km normamps=145.60
New "Linecode.BT_BT206_7_0_1_2" nphases=2 basefreq=60 r1=1.6397 x1=0.3465 units=km normamps=145.60
New "Linecode.BT_BT206_7_0_1_3" nphases=3 basefreq=60 r1=1.6397 x1=0.3465 units=km normamps=145.60
New "Linecode.BT_BT206_7_0_1_4" nphases=4 basefreq=60 r1=1.6397 x1=0.3465 units=km normamps=145.60

New "Linecode.BT_BT207_5_0_1_1" nphases=1 basefreq=60 r1=1.0323 x1=0.3844 units=km normamps=196.30
New "Linecode.BT_BT207_5_0_1_2" nphases=2 basefreq=60 r1=1.0323 x1=0.3844 units=km normamps=196.30
New "Linecode.BT_BT207_5_0_1_3" nphases=3 basefreq=60 r1=1.0323 x1=0.3844 units=km normamps=196.30
New "Linecode.BT_BT207_5_0_1_4" nphases=4 basefreq=60 r1=1.0323 x1=0.3844 units=km normamps=196.30

New "Linecode.BT_BT207_7_0_1_1" nphases=1 basefreq=60 r1=1.0323 x1=0.3844 units=km normamps=196.30
New "Linecode.BT_BT207_7_0_1_2" nphases=2 basefreq=60 r1=1.0323 x1=0.3844 units=km normamps=196.30
New "Linecode.BT_BT207_7_0_1_3" nphases=3 basefreq=60 r1=1.0323 x1=0.3844 units=km normamps=196.30
New "Linecode.BT_BT207_7_0_1_4" nphases=4 basefreq=60 r1=1.0323 x1=0.3844 units=km normamps=196.30

New "Linecode.BT_BT208_5_0_1_1" nphases=1 basefreq=60 r1=0.6500 x1=0.3074 units=km normamps=263.90
New "Linecode.BT_BT208_5_0_1_2" nphases=2 basefreq=60 r1=0.6500 x1=0.3074 units=km normamps=263.90
New "Linecode.BT_BT208_5_0_1_3" nphases=3 basefreq=60 r1=0.6500 x1=0.3074 units=km normamps=263.90
New "Linecode.BT_BT208_5_0_1_4" nphases=4 basefreq=60 r1=0.6500 x1=0.3074 units=km normamps=263.90

New "Linecode.BT_BT208_7_0_1_1" nphases=1 basefreq=60 r1=0.6500 x1=0.3074 units=km normamps=263.90
New "Linecode.BT_BT208_7_0_1_2" nphases=2 basefreq=60 r1=0.6500 x1=0.3074 units=km normamps=263.90
New "Linecode.BT_BT208_7_0_1_3" nphases=3 basefreq=60 r1=0.6500 x1=0.3074 units=km normamps=263.90
New "Linecode.BT_BT208_7_0_1_4" nphases=4 basefreq=60 r1=0.6500 x1=0.3074 units=km normamps=263.90

New "Linecode.BT_BT209_7_0_1_1" nphases=1 basefreq=60 r1=0.5953 x1=0.3834 units=km normamps=302.90
New "Linecode.BT_BT209_7_0_1_2" nphases=2 basefreq=60 r1=0.5953 x1=0.3834 units=km normamps=302.90
New "Linecode.BT_BT209_7_0_1_3" nphases=3 basefreq=60 r1=0.5953 x1=0.3834 units=km normamps=302.90
New "Linecode.BT_BT209_7_0_1_4" nphases=4 basefreq=60 r1=0.5953 x1=0.3834 units=km normamps=302.90

New "Linecode.BT_BT210_7_0_1_1" nphases=1 basefreq=60 r1=0.4809 x1=0.2820 units=km normamps=382.20
New "Linecode.BT_BT210_7_0_1_2" nphases=2 basefreq=60 r1=0.4809 x1=0.2820 units=km normamps=382.20
New "Linecode.BT_BT210_7_0_1_3" nphases=3 basefreq=60 r1=0.4809 x1=0.2820 units=km normamps=382.20
New "Linecode.BT_BT210_7_0_1_4" nphases=4 basefreq=60 r1=0.4809 x1=0.2820 units=km normamps=382.20

New "Linecode.BT_BT211_7_0_1_1" nphases=1 basefreq=60 r1=0.3257 x1=0.3479 units=km normamps=413.40
New "Linecode.BT_BT211_7_0_1_2" nphases=2 basefreq=60 r1=0.3257 x1=0.3479 units=km normamps=413.40
New "Linecode.BT_BT211_7_0_1_3" nphases=3 basefreq=60 r1=0.3257 x1=0.3479 units=km normamps=413.40
New "Linecode.BT_BT211_7_0_1_4" nphases=4 basefreq=60 r1=0.3257 x1=0.3479 units=km normamps=413.40

New "Linecode.BT_BT301_7_0_1_1" nphases=1 basefreq=60 r1=3.9216 x1=0.1578 units=km normamps=79.30
New "Linecode.BT_BT301_7_0_1_2" nphases=2 basefreq=60 r1=3.9216 x1=0.1578 units=km normamps=79.30
New "Linecode.BT_BT301_7_0_1_3" nphases=3 basefreq=60 r1=3.9216 x1=0.1578 units=km normamps=79.30
New "Linecode.BT_BT301_7_0_1_4" nphases=4 basefreq=60 r1=3.9216 x1=0.1578 units=km normamps=79.30

New "Linecode.BT_BT302_5_0_1_1" nphases=1 basefreq=60 r1=1.2300 x1=0.1290 units=km normamps=91.00
New "Linecode.BT_BT302_5_0_1_2" nphases=2 basefreq=60 r1=1.2300 x1=0.1290 units=km normamps=91.00
New "Linecode.BT_BT302_5_0_1_3" nphases=3 basefreq=60 r1=1.2300 x1=0.1290 units=km normamps=91.00
New "Linecode.BT_BT302_5_0_1_4" nphases=4 basefreq=60 r1=1.2300 x1=0.1290 units=km normamps=91.00

New "Linecode.BT_BT302_7_0_1_1" nphases=1 basefreq=60 r1=1.2300 x1=0.1290 units=km normamps=91.00
New "Linecode.BT_BT302_7_0_1_2" nphases=2 basefreq=60 r1=1.2300 x1=0.1290 units=km normamps=91.00
New "Linecode.BT_BT302_7_0_1_3" nphases=3 basefreq=60 r1=1.2300 x1=0.1290 units=km normamps=91.00
New "Linecode.BT_BT302_7_0_1_4" nphases=4 basefreq=60 r1=1.2300 x1=0.1290 units=km normamps=91.00

New "Linecode.BT_BT304_5_0_1_1" nphases=1 basefreq=60 r1=0.7734 x1=0.1287 units=km normamps=120.90
New "Linecode.BT_BT304_5_0_1_2" nphases=2 basefreq=60 r1=0.7734 x1=0.1287 units=km normamps=120.90
New "Linecode.BT_BT304_5_0_1_3" nphases=3 basefreq=60 r1=0.7734 x1=0.1287 units=km normamps=120.90
New "Linecode.BT_BT304_5_0_1_4" nphases=4 basefreq=60 r1=0.7734 x1=0.1287 units=km normamps=120.90

New "Linecode.BT_BT304_7_0_1_1" nphases=1 basefreq=60 r1=0.7734 x1=0.1287 units=km normamps=120.90
New "Linecode.BT_BT304_7_0_1_2" nphases=2 basefreq=60 r1=0.7734 x1=0.1287 units=km normamps=120.90
New "Linecode.BT_BT304_7_0_1_3" nphases=3 basefreq=60 r1=0.7734 x1=0.1287 units=km normamps=120.90
New "Linecode.BT_BT304_7_0_1_4" nphases=4 basefreq=60 r1=0.7734 x1=0.1287 units=km normamps=120.90

New "Linecode.BT_BT305_5_0_1_1" nphases=1 basefreq=60 r1=1.6022 x1=0.1337 units=km normamps=141.70
New "Linecode.BT_BT305_5_0_1_2" nphases=2 basefreq=60 r1=1.6022 x1=0.1337 units=km normamps=141.70
New "Linecode.BT_BT305_5_0_1_3" nphases=3 basefreq=60 r1=1.6022 x1=0.1337 units=km normamps=141.70
New "Linecode.BT_BT305_5_0_1_4" nphases=4 basefreq=60 r1=1.6022 x1=0.1337 units=km normamps=141.70

New "Linecode.BT_BT306_5_0_1_1" nphases=1 basefreq=60 r1=0.9282 x1=0.1318 units=km normamps=188.50
New "Linecode.BT_BT306_5_0_1_2" nphases=2 basefreq=60 r1=0.9282 x1=0.1318 units=km normamps=188.50
New "Linecode.BT_BT306_5_0_1_3" nphases=3 basefreq=60 r1=0.9282 x1=0.1318 units=km normamps=188.50
New "Linecode.BT_BT306_5_0_1_4" nphases=4 basefreq=60 r1=0.9282 x1=0.1318 units=km normamps=188.50

New "Linecode.BT_BT306_7_0_1_1" nphases=1 basefreq=60 r1=0.9282 x1=0.1318 units=km normamps=188.50
New "Linecode.BT_BT306_7_0_1_2" nphases=2 basefreq=60 r1=0.9282 x1=0.1318 units=km normamps=188.50
New "Linecode.BT_BT306_7_0_1_3" nphases=3 basefreq=60 r1=0.9282 x1=0.1318 units=km normamps=188.50
New "Linecode.BT_BT306_7_0_1_4" nphases=4 basefreq=60 r1=0.9282 x1=0.1318 units=km normamps=188.50

New "Linecode.BT_BT307_5_0_1_1" nphases=1 basefreq=60 r1=0.6694 x1=0.1255 units=km normamps=249.60
New "Linecode.BT_BT307_5_0_1_2" nphases=2 basefreq=60 r1=0.6694 x1=0.1255 units=km normamps=249.60
New "Linecode.BT_BT307_5_0_1_3" nphases=3 basefreq=60 r1=0.6694 x1=0.1255 units=km normamps=249.60
New "Linecode.BT_BT307_5_0_1_4" nphases=4 basefreq=60 r1=0.6694 x1=0.1255 units=km normamps=249.60

New "Linecode.BT_BT307_7_0_1_1" nphases=1 basefreq=60 r1=0.6694 x1=0.1255 units=km normamps=249.60
New "Linecode.BT_BT307_7_0_1_2" nphases=2 basefreq=60 r1=0.6694 x1=0.1255 units=km normamps=249.60
New "Linecode.BT_BT307_7_0_1_3" nphases=3 basefreq=60 r1=0.6694 x1=0.1255 units=km normamps=249.60
New "Linecode.BT_BT307_7_0_1_4" nphases=4 basefreq=60 r1=0.6694 x1=0.1255 units=km normamps=249.60

New "Linecode.BT_BT308_5_0_1_1" nphases=1 basefreq=60 r1=0.4002 x1=0.1236 units=km normamps=335.40
New "Linecode.BT_BT308_5_0_1_2" nphases=2 basefreq=60 r1=0.4002 x1=0.1236 units=km normamps=335.40
New "Linecode.BT_BT308_5_0_1_3" nphases=3 basefreq=60 r1=0.4002 x1=0.1236 units=km normamps=335.40
New "Linecode.BT_BT308_5_0_1_4" nphases=4 basefreq=60 r1=0.4002 x1=0.1236 units=km normamps=335.40

New "Linecode.BT_BT308_7_0_1_1" nphases=1 basefreq=60 r1=0.4002 x1=0.1236 units=km normamps=335.40
New "Linecode.BT_BT308_7_0_1_2" nphases=2 basefreq=60 r1=0.4002 x1=0.1236 units=km normamps=335.40
New "Linecode.BT_BT308_7_0_1_3" nphases=3 basefreq=60 r1=0.4002 x1=0.1236 units=km normamps=335.40
New "Linecode.BT_BT308_7_0_1_4" nphases=4 basefreq=60 r1=0.4002 x1=0.1236 units=km normamps=335.40

New "Linecode.BT_BT309_5_0_1_1" nphases=1 basefreq=60 r1=0.3208 x1=0.1208 units=km normamps=387.40
New "Linecode.BT_BT309_5_0_1_2" nphases=2 basefreq=60 r1=0.3208 x1=0.1208 units=km normamps=387.40
New "Linecode.BT_BT309_5_0_1_3" nphases=3 basefreq=60 r1=0.3208 x1=0.1208 units=km normamps=387.40
New "Linecode.BT_BT309_5_0_1_4" nphases=4 basefreq=60 r1=0.3208 x1=0.1208 units=km normamps=387.40

New "Linecode.BT_BT309_7_0_1_1" nphases=1 basefreq=60 r1=0.3208 x1=0.1208 units=km normamps=387.40
New "Linecode.BT_BT309_7_0_1_2" nphases=2 basefreq=60 r1=0.3208 x1=0.1208 units=km normamps=387.40
New "Linecode.BT_BT309_7_0_1_3" nphases=3 basefreq=60 r1=0.3208 x1=0.1208 units=km normamps=387.40
New "Linecode.BT_BT309_7_0_1_4" nphases=4 basefreq=60 r1=0.3208 x1=0.1208 units=km normamps=387.40

New "Linecode.BT_BT310_5_0_1_1" nphases=1 basefreq=60 r1=0.2426 x1=0.1015 units=km normamps=448.50
New "Linecode.BT_BT310_5_0_1_2" nphases=2 basefreq=60 r1=0.2426 x1=0.1015 units=km normamps=448.50
New "Linecode.BT_BT310_5_0_1_3" nphases=3 basefreq=60 r1=0.2426 x1=0.1015 units=km normamps=448.50
New "Linecode.BT_BT310_5_0_1_4" nphases=4 basefreq=60 r1=0.2426 x1=0.1015 units=km normamps=448.50

New "Linecode.BT_BT310_7_0_1_1" nphases=1 basefreq=60 r1=0.2426 x1=0.1015 units=km normamps=448.50
New "Linecode.BT_BT310_7_0_1_2" nphases=2 basefreq=60 r1=0.2426 x1=0.1015 units=km normamps=448.50
New "Linecode.BT_BT310_7_0_1_3" nphases=3 basefreq=60 r1=0.2426 x1=0.1015 units=km normamps=448.50
New "Linecode.BT_BT310_7_0_1_4" nphases=4 basefreq=60 r1=0.2426 x1=0.1015 units=km normamps=448.50

New "Linecode.BT_BT311_5_0_1_1" nphases=1 basefreq=60 r1=0.2078 x1=0.1129 units=km normamps=520.00
New "Linecode.BT_BT311_5_0_1_2" nphases=2 basefreq=60 r1=0.2078 x1=0.1129 units=km normamps=520.00
New "Linecode.BT_BT311_5_0_1_3" nphases=3 basefreq=60 r1=0.2078 x1=0.1129 units=km normamps=520.00
New "Linecode.BT_BT311_5_0_1_4" nphases=4 basefreq=60 r1=0.2078 x1=0.1129 units=km normamps=520.00

New "Linecode.BT_BT312_5_0_1_1" nphases=1 basefreq=60 r1=0.1210 x1=0.1248 units=km normamps=650.00
New "Linecode.BT_BT312_5_0_1_2" nphases=2 basefreq=60 r1=0.1210 x1=0.1248 units=km normamps=650.00
New "Linecode.BT_BT312_5_0_1_3" nphases=3 basefreq=60 r1=0.1210 x1=0.1248 units=km normamps=650.00
New "Linecode.BT_BT312_5_0_1_4" nphases=4 basefreq=60 r1=0.1210 x1=0.1248 units=km normamps=650.00

New "Linecode.BT_BT314_5_0_1_1" nphases=1 basefreq=60 r1=0.0860 x1=0.1199 units=km normamps=1025.70
New "Linecode.BT_BT314_5_0_1_2" nphases=2 basefreq=60 r1=0.0860 x1=0.1199 units=km normamps=1025.70
New "Linecode.BT_BT314_5_0_1_3" nphases=3 basefreq=60 r1=0.0860 x1=0.1199 units=km normamps=1025.70
New "Linecode.BT_BT314_5_0_1_4" nphases=4 basefreq=60 r1=0.0860 x1=0.1199 units=km normamps=1025.70

New "Linecode.BT_BT314_7_0_1_1" nphases=1 basefreq=60 r1=0.0860 x1=0.1199 units=km normamps=1025.70
New "Linecode.BT_BT314_7_0_1_2" nphases=2 basefreq=60 r1=0.0860 x1=0.1199 units=km normamps=1025.70
New "Linecode.BT_BT314_7_0_1_3" nphases=3 basefreq=60 r1=0.0860 x1=0.1199 units=km normamps=1025.70
New "Linecode.BT_BT314_7_0_1_4" nphases=4 basefreq=60 r1=0.0860 x1=0.1199 units=km normamps=1025.70

New "Linecode.BT_BT316_7_0_1_1" nphases=1 basefreq=60 r1=2.0628 x1=0.1458 units=km normamps=132.60
New "Linecode.BT_BT316_7_0_1_2" nphases=2 basefreq=60 r1=2.0628 x1=0.1458 units=km normamps=132.60
New "Linecode.BT_BT316_7_0_1_3" nphases=3 basefreq=60 r1=2.0628 x1=0.1458 units=km normamps=132.60
New "Linecode.BT_BT316_7_0_1_4" nphases=4 basefreq=60 r1=2.0628 x1=0.1458 units=km normamps=132.60

New "Linecode.BT_BT317_5_0_1_1" nphases=1 basefreq=60 r1=0.2171 x1=0.1232 units=km normamps=555.10
New "Linecode.BT_BT317_5_0_1_2" nphases=2 basefreq=60 r1=0.2171 x1=0.1232 units=km normamps=555.10
New "Linecode.BT_BT317_5_0_1_3" nphases=3 basefreq=60 r1=0.2171 x1=0.1232 units=km normamps=555.10
New "Linecode.BT_BT317_5_0_1_4" nphases=4 basefreq=60 r1=0.2171 x1=0.1232 units=km normamps=555.10

New "Linecode.BT_BT502_5_0_1_1" nphases=1 basefreq=60 r1=4.0404 x1=0.1477 units=km normamps=83.20
New "Linecode.BT_BT502_5_0_1_2" nphases=2 basefreq=60 r1=4.0404 x1=0.1477 units=km normamps=83.20
New "Linecode.BT_BT502_5_0_1_3" nphases=3 basefreq=60 r1=4.0404 x1=0.1477 units=km normamps=83.20
New "Linecode.BT_BT502_5_0_1_4" nphases=4 basefreq=60 r1=4.0404 x1=0.1477 units=km normamps=83.20

New "Linecode.BT_BT503_5_0_1_1" nphases=1 basefreq=60 r1=0.1335 x1=0.1324 units=km normamps=106.60
New "Linecode.BT_BT503_5_0_1_2" nphases=2 basefreq=60 r1=0.1335 x1=0.1324 units=km normamps=106.60
New "Linecode.BT_BT503_5_0_1_3" nphases=3 basefreq=60 r1=0.1335 x1=0.1324 units=km normamps=106.60
New "Linecode.BT_BT503_5_0_1_4" nphases=4 basefreq=60 r1=0.1335 x1=0.1324 units=km normamps=106.60

New "Linecode.BT_BT503_7_0_1_1" nphases=1 basefreq=60 r1=0.1335 x1=0.1324 units=km normamps=106.60
New "Linecode.BT_BT503_7_0_1_2" nphases=2 basefreq=60 r1=0.1335 x1=0.1324 units=km normamps=106.60
New "Linecode.BT_BT503_7_0_1_3" nphases=3 basefreq=60 r1=0.1335 x1=0.1324 units=km normamps=106.60
New "Linecode.BT_BT503_7_0_1_4" nphases=4 basefreq=60 r1=0.1335 x1=0.1324 units=km normamps=106.60

New "Linecode.BT_BT504_5_0_1_1" nphases=1 basefreq=60 r1=2.5427 x1=0.1352 units=km normamps=110.50
New "Linecode.BT_BT504_5_0_1_2" nphases=2 basefreq=60 r1=2.5427 x1=0.1352 units=km normamps=110.50
New "Linecode.BT_BT504_5_0_1_3" nphases=3 basefreq=60 r1=2.5427 x1=0.1352 units=km normamps=110.50
New "Linecode.BT_BT504_5_0_1_4" nphases=4 basefreq=60 r1=2.5427 x1=0.1352 units=km normamps=110.50

New "Linecode.BT_BT505_5_0_1_1" nphases=1 basefreq=60 r1=1.6119 x1=0.1382 units=km normamps=131.30
New "Linecode.BT_BT505_5_0_1_2" nphases=2 basefreq=60 r1=1.6119 x1=0.1382 units=km normamps=131.30
New "Linecode.BT_BT505_5_0_1_3" nphases=3 basefreq=60 r1=1.6119 x1=0.1382 units=km normamps=131.30
New "Linecode.BT_BT505_5_0_1_4" nphases=4 basefreq=60 r1=1.6119 x1=0.1382 units=km normamps=131.30

New "Linecode.BT_BT506_5_0_1_1" nphases=1 basefreq=60 r1=2.0166 x1=0.1334 units=km normamps=146.90
New "Linecode.BT_BT506_5_0_1_2" nphases=2 basefreq=60 r1=2.0166 x1=0.1334 units=km normamps=146.90
New "Linecode.BT_BT506_5_0_1_3" nphases=3 basefreq=60 r1=2.0166 x1=0.1334 units=km normamps=146.90
New "Linecode.BT_BT506_5_0_1_4" nphases=4 basefreq=60 r1=2.0166 x1=0.1334 units=km normamps=146.90

New "Linecode.BT_BT507_5_0_1_1" nphases=1 basefreq=60 r1=1.2680 x1=0.1255 units=km normamps=195.00
New "Linecode.BT_BT507_5_0_1_2" nphases=2 basefreq=60 r1=1.2680 x1=0.1255 units=km normamps=195.00
New "Linecode.BT_BT507_5_0_1_3" nphases=3 basefreq=60 r1=1.2680 x1=0.1255 units=km normamps=195.00
New "Linecode.BT_BT507_5_0_1_4" nphases=4 basefreq=60 r1=1.2680 x1=0.1255 units=km normamps=195.00

New "Linecode.BT_BT507_7_0_1_1" nphases=1 basefreq=60 r1=1.2680 x1=0.1255 units=km normamps=195.00
New "Linecode.BT_BT507_7_0_1_2" nphases=2 basefreq=60 r1=1.2680 x1=0.1255 units=km normamps=195.00
New "Linecode.BT_BT507_7_0_1_3" nphases=3 basefreq=60 r1=1.2680 x1=0.1255 units=km normamps=195.00
New "Linecode.BT_BT507_7_0_1_4" nphases=4 basefreq=60 r1=1.2680 x1=0.1255 units=km normamps=195.00

New "Linecode.BT_BT508_5_0_1_1" nphases=1 basefreq=60 r1=1.0994 x1=0.1236 units=km normamps=261.30
New "Linecode.BT_BT508_5_0_1_2" nphases=2 basefreq=60 r1=1.0994 x1=0.1236 units=km normamps=261.30
New "Linecode.BT_BT508_5_0_1_3" nphases=3 basefreq=60 r1=1.0994 x1=0.1236 units=km normamps=261.30
New "Linecode.BT_BT508_5_0_1_4" nphases=4 basefreq=60 r1=1.0994 x1=0.1236 units=km normamps=261.30

New "Linecode.BT_BT509_5_0_1_1" nphases=1 basefreq=60 r1=0.6913 x1=0.1208 units=km normamps=301.60
New "Linecode.BT_BT509_5_0_1_2" nphases=2 basefreq=60 r1=0.6913 x1=0.1208 units=km normamps=301.60
New "Linecode.BT_BT509_5_0_1_3" nphases=3 basefreq=60 r1=0.6913 x1=0.1208 units=km normamps=301.60
New "Linecode.BT_BT509_5_0_1_4" nphases=4 basefreq=60 r1=0.6913 x1=0.1208 units=km normamps=301.60

New "Linecode.BT_BT509_7_0_1_1" nphases=1 basefreq=60 r1=0.6913 x1=0.1208 units=km normamps=301.60
New "Linecode.BT_BT509_7_0_1_2" nphases=2 basefreq=60 r1=0.6913 x1=0.1208 units=km normamps=301.60
New "Linecode.BT_BT509_7_0_1_3" nphases=3 basefreq=60 r1=0.6913 x1=0.1208 units=km normamps=301.60
New "Linecode.BT_BT509_7_0_1_4" nphases=4 basefreq=60 r1=0.6913 x1=0.1208 units=km normamps=301.60

New "Linecode.BT_BT511_5_0_1_1" nphases=1 basefreq=60 r1=0.4018 x1=0.1170 units=km normamps=405.60
New "Linecode.BT_BT511_5_0_1_2" nphases=2 basefreq=60 r1=0.4018 x1=0.1170 units=km normamps=405.60
New "Linecode.BT_BT511_5_0_1_3" nphases=3 basefreq=60 r1=0.4018 x1=0.1170 units=km normamps=405.60
New "Linecode.BT_BT511_5_0_1_4" nphases=4 basefreq=60 r1=0.4018 x1=0.1170 units=km normamps=405.60

New "Linecode.BT_BT511_7_0_1_1" nphases=1 basefreq=60 r1=0.4018 x1=0.1170 units=km normamps=405.60
New "Linecode.BT_BT511_7_0_1_2" nphases=2 basefreq=60 r1=0.4018 x1=0.1170 units=km normamps=405.60
New "Linecode.BT_BT511_7_0_1_3" nphases=3 basefreq=60 r1=0.4018 x1=0.1170 units=km normamps=405.60
New "Linecode.BT_BT511_7_0_1_4" nphases=4 basefreq=60 r1=0.4018 x1=0.1170 units=km normamps=405.60

New "Linecode.BT_BT513_5_0_1_1" nphases=1 basefreq=60 r1=0.5147 x1=0.1214 units=km normamps=501.80
New "Linecode.BT_BT513_5_0_1_2" nphases=2 basefreq=60 r1=0.5147 x1=0.1214 units=km normamps=501.80
New "Linecode.BT_BT513_5_0_1_3" nphases=3 basefreq=60 r1=0.5147 x1=0.1214 units=km normamps=501.80
New "Linecode.BT_BT513_5_0_1_4" nphases=4 basefreq=60 r1=0.5147 x1=0.1214 units=km normamps=501.80

New "Linecode.BT_BT513_7_0_1_1" nphases=1 basefreq=60 r1=0.5147 x1=0.1214 units=km normamps=501.80
New "Linecode.BT_BT513_7_0_1_2" nphases=2 basefreq=60 r1=0.5147 x1=0.1214 units=km normamps=501.80
New "Linecode.BT_BT513_7_0_1_3" nphases=3 basefreq=60 r1=0.5147 x1=0.1214 units=km normamps=501.80
New "Linecode.BT_BT513_7_0_1_4" nphases=4 basefreq=60 r1=0.5147 x1=0.1214 units=km normamps=501.80

New "Linecode.BT_BT514_5_0_1_1" nphases=1 basefreq=60 r1=0.3250 x1=0.1199 units=km normamps=795.60
New "Linecode.BT_BT514_5_0_1_2" nphases=2 basefreq=60 r1=0.3250 x1=0.1199 units=km normamps=795.60
New "Linecode.BT_BT514_5_0_1_3" nphases=3 basefreq=60 r1=0.3250 x1=0.1199 units=km normamps=795.60
New "Linecode.BT_BT514_5_0_1_4" nphases=4 basefreq=60 r1=0.3250 x1=0.1199 units=km normamps=795.60

New "Linecode.BT_BT514_7_0_1_1" nphases=1 basefreq=60 r1=0.3250 x1=0.1199 units=km normamps=795.60
New "Linecode.BT_BT514_7_0_1_2" nphases=2 basefreq=60 r1=0.3250 x1=0.1199 units=km normamps=795.60
New "Linecode.BT_BT514_7_0_1_3" nphases=3 basefreq=60 r1=0.3250 x1=0.1199 units=km normamps=795.60
New "Linecode.BT_BT514_7_0_1_4" nphases=4 basefreq=60 r1=0.3250 x1=0.1199 units=km normamps=795.60

New "Linecode.BT_BT517_5_0_1_1" nphases=1 basefreq=60 r1=3.3818 x1=0.1350 units=km normamps=122.20
New "Linecode.BT_BT517_5_0_1_2" nphases=2 basefreq=60 r1=3.3818 x1=0.1350 units=km normamps=122.20
New "Linecode.BT_BT517_5_0_1_3" nphases=3 basefreq=60 r1=3.3818 x1=0.1350 units=km normamps=122.20
New "Linecode.BT_BT517_5_0_1_4" nphases=4 basefreq=60 r1=3.3818 x1=0.1350 units=km normamps=122.20

New "Linecode.BT_BT517_7_0_1_1" nphases=1 basefreq=60 r1=3.3818 x1=0.1350 units=km normamps=122.20
New "Linecode.BT_BT517_7_0_1_2" nphases=2 basefreq=60 r1=3.3818 x1=0.1350 units=km normamps=122.20
New "Linecode.BT_BT517_7_0_1_3" nphases=3 basefreq=60 r1=3.3818 x1=0.1350 units=km normamps=122.20
New "Linecode.BT_BT517_7_0_1_4" nphases=4 basefreq=60 r1=3.3818 x1=0.1350 units=km normamps=122.20

New "Linecode.BT_BT518_5_0_1_1" nphases=1 basefreq=60 r1=0.8220 x1=0.1301 units=km normamps=179.40
New "Linecode.BT_BT518_5_0_1_2" nphases=2 basefreq=60 r1=0.8220 x1=0.1301 units=km normamps=179.40
New "Linecode.BT_BT518_5_0_1_3" nphases=3 basefreq=60 r1=0.8220 x1=0.1301 units=km normamps=179.40
New "Linecode.BT_BT518_5_0_1_4" nphases=4 basefreq=60 r1=0.8220 x1=0.1301 units=km normamps=179.40

New "Linecode.BT_BT518_7_0_1_1" nphases=1 basefreq=60 r1=0.8220 x1=0.1301 units=km normamps=179.40
New "Linecode.BT_BT518_7_0_1_2" nphases=2 basefreq=60 r1=0.8220 x1=0.1301 units=km normamps=179.40
New "Linecode.BT_BT518_7_0_1_3" nphases=3 basefreq=60 r1=0.8220 x1=0.1301 units=km normamps=179.40
New "Linecode.BT_BT518_7_0_1_4" nphases=4 basefreq=60 r1=0.8220 x1=0.1301 units=km normamps=179.40

New "Linecode.BT_BT520_5_0_1_1" nphases=1 basefreq=60 r1=0.1675 x1=0.0461 units=km normamps=665.60
New "Linecode.BT_BT520_5_0_1_2" nphases=2 basefreq=60 r1=0.1675 x1=0.0461 units=km normamps=665.60
New "Linecode.BT_BT520_5_0_1_3" nphases=3 basefreq=60 r1=0.1675 x1=0.0461 units=km normamps=665.60
New "Linecode.BT_BT520_5_0_1_4" nphases=4 basefreq=60 r1=0.1675 x1=0.0461 units=km normamps=665.60

New "Linecode.BT_BT520_7_0_1_1" nphases=1 basefreq=60 r1=0.1675 x1=0.0461 units=km normamps=665.60
New "Linecode.BT_BT520_7_0_1_2" nphases=2 basefreq=60 r1=0.1675 x1=0.0461 units=km normamps=665.60
New "Linecode.BT_BT520_7_0_1_3" nphases=3 basefreq=60 r1=0.1675 x1=0.0461 units=km normamps=665.60
New "Linecode.BT_BT520_7_0_1_4" nphases=4 basefreq=60 r1=0.1675 x1=0.0461 units=km normamps=665.60

New "Linecode.BT_BT521_5_0_1_1" nphases=1 basefreq=60 r1=0.9662 x1=0.1344 units=km normamps=221.00
New "Linecode.BT_BT521_5_0_1_2" nphases=2 basefreq=60 r1=0.9662 x1=0.1344 units=km normamps=221.00
New "Linecode.BT_BT521_5_0_1_3" nphases=3 basefreq=60 r1=0.9662 x1=0.1344 units=km normamps=221.00
New "Linecode.BT_BT521_5_0_1_4" nphases=4 basefreq=60 r1=0.9662 x1=0.1344 units=km normamps=221.00

New "Linecode.BT_BT521_7_0_1_1" nphases=1 basefreq=60 r1=0.9662 x1=0.1344 units=km normamps=221.00
New "Linecode.BT_BT521_7_0_1_2" nphases=2 basefreq=60 r1=0.9662 x1=0.1344 units=km normamps=221.00
New "Linecode.BT_BT521_7_0_1_3" nphases=3 basefreq=60 r1=0.9662 x1=0.1344 units=km normamps=221.00
New "Linecode.BT_BT521_7_0_1_4" nphases=4 basefreq=60 r1=0.9662 x1=0.1344 units=km normamps=221.00

New "Linecode.BT_BT801_4_0_3_1" nphases=1 basefreq=60 r1=1.0429 x1=0.0818 units=km normamps=128.70
New "Linecode.BT_BT801_4_0_3_2" nphases=2 basefreq=60 r1=1.0429 x1=0.0818 units=km normamps=128.70
New "Linecode.BT_BT801_4_0_3_3" nphases=3 basefreq=60 r1=1.0429 x1=0.0818 units=km normamps=128.70
New "Linecode.BT_BT801_4_0_3_4" nphases=4 basefreq=60 r1=1.0429 x1=0.0818 units=km normamps=128.70

New "Linecode.BT_BT802_4_0_3_1" nphases=1 basefreq=60 r1=0.7702 x1=0.0835 units=km normamps=159.90
New "Linecode.BT_BT802_4_0_3_2" nphases=2 basefreq=60 r1=0.7702 x1=0.0835 units=km normamps=159.90
New "Linecode.BT_BT802_4_0_3_3" nphases=3 basefreq=60 r1=0.7702 x1=0.0835 units=km normamps=159.90
New "Linecode.BT_BT802_4_0_3_4" nphases=4 basefreq=60 r1=0.7702 x1=0.0835 units=km normamps=159.90

New "Linecode.BT_BT803_4_0_4_1" nphases=1 basefreq=60 r1=0.5323 x1=0.0800 units=km normamps=191.10
New "Linecode.BT_BT803_4_0_4_2" nphases=2 basefreq=60 r1=0.5323 x1=0.0800 units=km normamps=191.10
New "Linecode.BT_BT803_4_0_4_3" nphases=3 basefreq=60 r1=0.5323 x1=0.0800 units=km normamps=191.10
New "Linecode.BT_BT803_4_0_4_4" nphases=4 basefreq=60 r1=0.5323 x1=0.0800 units=km normamps=191.10

New "Linecode.BT_BT805_4_0_4_1" nphases=1 basefreq=60 r1=0.3040 x1=0.0911 units=km normamps=261.30
New "Linecode.BT_BT805_4_0_4_2" nphases=2 basefreq=60 r1=0.3040 x1=0.0911 units=km normamps=261.30
New "Linecode.BT_BT805_4_0_4_3" nphases=3 basefreq=60 r1=0.3040 x1=0.0911 units=km normamps=261.30
New "Linecode.BT_BT805_4_0_4_4" nphases=4 basefreq=60 r1=0.3040 x1=0.0911 units=km normamps=261.30

New "Linecode.BT_BT806_4_0_4_1" nphases=1 basefreq=60 r1=0.2264 x1=0.0865 units=km normamps=292.50
New "Linecode.BT_BT806_4_0_4_2" nphases=2 basefreq=60 r1=0.2264 x1=0.0865 units=km normamps=292.50
New "Linecode.BT_BT806_4_0_4_3" nphases=3 basefreq=60 r1=0.2264 x1=0.0865 units=km normamps=292.50
New "Linecode.BT_BT806_4_0_4_4" nphases=4 basefreq=60 r1=0.2264 x1=0.0865 units=km normamps=292.50

New "Linecode.BT_BT807_4_0_3_1" nphases=1 basefreq=60 r1=0.5323 x1=0.0897 units=km normamps=260.00
New "Linecode.BT_BT807_4_0_3_2" nphases=2 basefreq=60 r1=0.5323 x1=0.0897 units=km normamps=260.00
New "Linecode.BT_BT807_4_0_3_3" nphases=3 basefreq=60 r1=0.5323 x1=0.0897 units=km normamps=260.00
New "Linecode.BT_BT807_4_0_3_4" nphases=4 basefreq=60 r1=0.5323 x1=0.0897 units=km normamps=260.00

New "Linecode.BT_BT809_4_0_4_1" nphases=1 basefreq=60 r1=1.0429 x1=0.0818 units=km normamps=143.00
New "Linecode.BT_BT809_4_0_4_2" nphases=2 basefreq=60 r1=1.0429 x1=0.0818 units=km normamps=143.00
New "Linecode.BT_BT809_4_0_4_3" nphases=3 basefreq=60 r1=1.0429 x1=0.0818 units=km normamps=143.00
New "Linecode.BT_BT809_4_0_4_4" nphases=4 basefreq=60 r1=1.0429 x1=0.0818 units=km normamps=143.00

New "Linecode.BT_BT810_4_0_4_1" nphases=1 basefreq=60 r1=1.0429 x1=0.0698 units=km normamps=143.00
New "Linecode.BT_BT810_4_0_4_2" nphases=2 basefreq=60 r1=1.0429 x1=0.0698 units=km normamps=143.00
New "Linecode.BT_BT810_4_0_4_3" nphases=3 basefreq=60 r1=1.0429 x1=0.0698 units=km normamps=143.00
New "Linecode.BT_BT810_4_0_4_4" nphases=4 basefreq=60 r1=1.0429 x1=0.0698 units=km normamps=143.00

New "Linecode.BT_BT811_4_0_3_1" nphases=1 basefreq=60 r1=2.2949 x1=0.0821 units=km normamps=123.50
New "Linecode.BT_BT811_4_0_3_2" nphases=2 basefreq=60 r1=2.2949 x1=0.0821 units=km normamps=123.50
New "Linecode.BT_BT811_4_0_3_3" nphases=3 basefreq=60 r1=2.2949 x1=0.0821 units=km normamps=123.50
New "Linecode.BT_BT811_4_0_3_4" nphases=4 basefreq=60 r1=2.2949 x1=0.0821 units=km normamps=123.50

New "Linecode.BT_BT812_4_0_4_1" nphases=1 basefreq=60 r1=1.4418 x1=0.0889 units=km normamps=140.40
New "Linecode.BT_BT812_4_0_4_2" nphases=2 basefreq=60 r1=1.4418 x1=0.0889 units=km normamps=140.40
New "Linecode.BT_BT812_4_0_4_3" nphases=3 basefreq=60 r1=1.4418 x1=0.0889 units=km normamps=140.40
New "Linecode.BT_BT812_4_0_4_4" nphases=4 basefreq=60 r1=1.4418 x1=0.0889 units=km normamps=140.40

New "Linecode.BT_BT813_4_0_4_1" nphases=1 basefreq=60 r1=0.7702 x1=0.0797 units=km normamps=208.00
New "Linecode.BT_BT813_4_0_4_2" nphases=2 basefreq=60 r1=0.7702 x1=0.0797 units=km normamps=208.00
New "Linecode.BT_BT813_4_0_4_3" nphases=3 basefreq=60 r1=0.7702 x1=0.0797 units=km normamps=208.00
New "Linecode.BT_BT813_4_0_4_4" nphases=4 basefreq=60 r1=0.7702 x1=0.0797 units=km normamps=208.00

New "Linecode.BT_BT814_4_0_3_1" nphases=1 basefreq=60 r1=1.4418 x1=0.0833 units=km normamps=162.50
New "Linecode.BT_BT814_4_0_3_2" nphases=2 basefreq=60 r1=1.4418 x1=0.0833 units=km normamps=162.50
New "Linecode.BT_BT814_4_0_3_3" nphases=3 basefreq=60 r1=1.4418 x1=0.0833 units=km normamps=162.50
New "Linecode.BT_BT814_4_0_3_4" nphases=4 basefreq=60 r1=1.4418 x1=0.0833 units=km normamps=162.50

New "Linecode.BT_BT815_4_0_4_1" nphases=1 basefreq=60 r1=2.2949 x1=0.0821 units=km normamps=106.60
New "Linecode.BT_BT815_4_0_4_2" nphases=2 basefreq=60 r1=2.2949 x1=0.0821 units=km normamps=106.60
New "Linecode.BT_BT815_4_0_4_3" nphases=3 basefreq=60 r1=2.2949 x1=0.0821 units=km normamps=106.60
New "Linecode.BT_BT815_4_0_4_4" nphases=4 basefreq=60 r1=2.2949 x1=0.0821 units=km normamps=106.60

New "Linecode.BT_BT816_4_0_2_1" nphases=1 basefreq=60 r1=1.4418 x1=0.0833 units=km normamps=162.50
New "Linecode.BT_BT816_4_0_2_2" nphases=2 basefreq=60 r1=1.4418 x1=0.0833 units=km normamps=162.50
New "Linecode.BT_BT816_4_0_2_3" nphases=3 basefreq=60 r1=1.4418 x1=0.0833 units=km normamps=162.50
New "Linecode.BT_BT816_4_0_2_4" nphases=4 basefreq=60 r1=1.4418 x1=0.0833 units=km normamps=162.50

New "Linecode.BT_BTC01_5_0_1_1" nphases=1 basefreq=60 r1=0.1500 x1=0.0000 units=km normamps=290.00
New "Linecode.BT_BTC01_5_0_1_2" nphases=2 basefreq=60 r1=0.1500 x1=0.0000 units=km normamps=290.00
New "Linecode.BT_BTC01_5_0_1_3" nphases=3 basefreq=60 r1=0.1500 x1=0.0000 units=km normamps=290.00
New "Linecode.BT_BTC01_5_0_1_4" nphases=4 basefreq=60 r1=0.1500 x1=0.0000 units=km normamps=290.00

New "Linecode.BT_BTC01_7_0_1_1" nphases=1 basefreq=60 r1=0.1500 x1=0.0000 units=km normamps=290.00
New "Linecode.BT_BTC01_7_0_1_2" nphases=2 basefreq=60 r1=0.1500 x1=0.0000 units=km normamps=290.00
New "Linecode.BT_BTC01_7_0_1_3" nphases=3 basefreq=60 r1=0.1500 x1=0.0000 units=km normamps=290.00
New "Linecode.BT_BTC01_7_0_1_4" nphases=4 basefreq=60 r1=0.1500 x1=0.0000 units=km normamps=290.00

New "Linecode.BT_BTC02_7_0_1_1" nphases=1 basefreq=60 r1=0.1500 x1=0.0000 units=km normamps=290.00
New "Linecode.BT_BTC02_7_0_1_2" nphases=2 basefreq=60 r1=0.1500 x1=0.0000 units=km normamps=290.00
New "Linecode.BT_BTC02_7_0_1_3" nphases=3 basefreq=60 r1=0.1500 x1=0.0000 units=km normamps=290.00
New "Linecode.BT_BTC02_7_0_1_4" nphases=4 basefreq=60 r1=0.1500 x1=0.0000 units=km normamps=290.00

New "Linecode.BT_BTF01_7_0_1_1" nphases=1 basefreq=60 r1=0.1500 x1=0.0000 units=km normamps=290.00
New "Linecode.BT_BTF01_7_0_1_2" nphases=2 basefreq=60 r1=0.1500 x1=0.0000 units=km normamps=290.00
New "Linecode.BT_BTF01_7_0_1_3" nphases=3 basefreq=60 r1=0.1500 x1=0.0000 units=km normamps=290.00
New "Linecode.BT_BTF01_7_0_1_4" nphases=4 basefreq=60 r1=0.1500 x1=0.0000 units=km normamps=290.00

New "Linecode.BT_BTH01_5_0_1_1" nphases=1 basefreq=60 r1=0.1500 x1=0.0000 units=km normamps=290.00
New "Linecode.BT_BTH01_5_0_1_2" nphases=2 basefreq=60 r1=0.1500 x1=0.0000 units=km normamps=290.00
New "Linecode.BT_BTH01_5_0_1_3" nphases=3 basefreq=60 r1=0.1500 x1=0.0000 units=km normamps=290.00
New "Linecode.BT_BTH01_5_0_1_4" nphases=4 basefreq=60 r1=0.1500 x1=0.0000 units=km normamps=290.00

New "Linecode.BT_BTH01_7_0_1_1" nphases=1 basefreq=60 r1=0.1500 x1=0.0000 units=km normamps=290.00
New "Linecode.BT_BTH01_7_0_1_2" nphases=2 basefreq=60 r1=0.1500 x1=0.0000 units=km normamps=290.00
New "Linecode.BT_BTH01_7_0_1_3" nphases=3 basefreq=60 r1=0.1500 x1=0.0000 units=km normamps=290.00
New "Linecode.BT_BTH01_7_0_1_4" nphases=4 basefreq=60 r1=0.1500 x1=0.0000 units=km normamps=290.00

New "Linecode.BT_BTH02_5_0_1_1" nphases=1 basefreq=60 r1=0.1500 x1=0.0000 units=km normamps=290.00
New "Linecode.BT_BTH02_5_0_1_2" nphases=2 basefreq=60 r1=0.1500 x1=0.0000 units=km normamps=290.00
New "Linecode.BT_BTH02_5_0_1_3" nphases=3 basefreq=60 r1=0.1500 x1=0.0000 units=km normamps=290.00
New "Linecode.BT_BTH02_5_0_1_4" nphases=4 basefreq=60 r1=0.1500 x1=0.0000 units=km normamps=290.00

New "Linecode.BT_BTH02_7_0_1_1" nphases=1 basefreq=60 r1=0.1500 x1=0.0000 units=km normamps=290.00
New "Linecode.BT_BTH02_7_0_1_2" nphases=2 basefreq=60 r1=0.1500 x1=0.0000 units=km normamps=290.00
New "Linecode.BT_BTH02_7_0_1_3" nphases=3 basefreq=60 r1=0.1500 x1=0.0000 units=km normamps=290.00
New "Linecode.BT_BTH02_7_0_1_4" nphases=4 basefreq=60 r1=0.1500 x1=0.0000 units=km normamps=290.00

New "Linecode.BT_BTH03_5_0_1_1" nphases=1 basefreq=60 r1=0.1500 x1=0.0000 units=km normamps=290.00
New "Linecode.BT_BTH03_5_0_1_2" nphases=2 basefreq=60 r1=0.1500 x1=0.0000 units=km normamps=290.00
New "Linecode.BT_BTH03_5_0_1_3" nphases=3 basefreq=60 r1=0.1500 x1=0.0000 units=km normamps=290.00
New "Linecode.BT_BTH03_5_0_1_4" nphases=4 basefreq=60 r1=0.1500 x1=0.0000 units=km normamps=290.00

New "Linecode.BT_BTH03_7_0_1_1" nphases=1 basefreq=60 r1=0.1500 x1=0.0000 units=km normamps=290.00
New "Linecode.BT_BTH03_7_0_1_2" nphases=2 basefreq=60 r1=0.1500 x1=0.0000 units=km normamps=290.00
New "Linecode.BT_BTH03_7_0_1_3" nphases=3 basefreq=60 r1=0.1500 x1=0.0000 units=km normamps=290.00
New "Linecode.BT_BTH03_7_0_1_4" nphases=4 basefreq=60 r1=0.1500 x1=0.0000 units=km normamps=290.00

...